@<TRIPOS>MOLECULE
cyclohexane
 18 18 0 0 0
SMALL
GASTEIGER

@<TRIPOS>ATOM
      1 C          -1.4206    0.3280   -0.2206 C.3     1  UNL1       -0.0531
      2 C          -0.9908   -1.0650    0.2341 C.3     1  UNL1       -0.0531
      3 C           0.4252   -1.3905   -0.2336 C.3     1  UNL1       -0.0531
      4 C           1.4200   -0.3281    0.2262 C.3     1  UNL1       -0.0531
      5 C           0.9945    1.0659   -0.2274 C.3     1  UNL1       -0.0531
      6 C          -0.4255    1.3934    0.2308 C.3     1  UNL1       -0.0531
      7 H          -2.4146    0.5571    0.1805 H       1  UNL1        0.0265
      8 H          -1.5045    0.3455   -1.3141 H       1  UNL1        0.0265
      9 H          -1.6907   -1.8136   -0.1534 H       1  UNL1        0.0265
     10 H          -1.0352   -1.1204    1.3288 H       1  UNL1        0.0265
     11 H           0.4422   -1.4575   -1.3282 H       1  UNL1        0.0265
     12 H           0.7260   -2.3708    0.1522 H       1  UNL1        0.0265
     13 H           2.4166   -0.5579   -0.1681 H       1  UNL1        0.0265
     14 H           1.4959   -0.3483    1.3205 H       1  UNL1        0.0265
     15 H           1.0471    1.1250   -1.3218 H       1  UNL1        0.0265
     16 H           1.6917    1.8127    0.1678 H       1  UNL1        0.0265
     17 H          -0.7249    2.3706   -0.1629 H       1  UNL1        0.0265
     18 H          -0.4449    1.4685    1.3250 H       1  UNL1        0.0265
@<TRIPOS>BOND
     1     1     2    1
     2     2     3    1
     3     3     4    1
     4     4     5    1
     5     5     6    1
     6     1     6    1
     7     1     7    1
     8     1     8    1
     9     2     9    1
    10     2    10    1
    11     3    11    1
    12     3    12    1
    13     4    13    1
    14     4    14    1
    15     5    15    1
    16     5    16    1
    17     6    17    1
    18     6    18    1
@<TRIPOS>MOLECULE
benzene
 12 12 0 0 0
SMALL
GASTEIGER

@<TRIPOS>ATOM
      1 C           1.3832   -0.2215    0.0055 C.ar    1  UNL1       -0.0618
      2 C           0.5068   -1.3068   -0.0081 C.ar    1  UNL1       -0.0618
      3 C          -0.8711   -1.0905   -0.0146 C.ar    1  UNL1       -0.0618
      4 C          -1.3730    0.2108   -0.0046 C.ar    1  UNL1       -0.0618
      5 C          -0.4966    1.2959    0.0105 C.ar    1  UNL1       -0.0618
      6 C           0.8812    1.0797    0.0139 C.ar    1  UNL1       -0.0618
      7 H           2.4567   -0.3901    0.0095 H       1  UNL1        0.0618
      8 H           0.8977   -2.3207   -0.0137 H       1  UNL1        0.0618
      9 H          -1.5538   -1.9361   -0.0271 H       1  UNL1        0.0618
     10 H          -2.4465    0.3794   -0.0084 H       1  UNL1        0.0618
     11 H          -0.8876    2.3099    0.0193 H       1  UNL1        0.0618
     12 H           1.5639    1.9253    0.0238 H       1  UNL1        0.0618
@<TRIPOS>BOND
     1     1     2   ar
     2     2     3   ar
     3     3     4   ar
     4     4     5   ar
     5     5     6   ar
     6     1     6   ar
     7     1     7    1
     8     2     8    1
     9     3     9    1
    10     4    10    1
    11     5    11    1
    12     6    12    1
