@<TRIPOS>MOLECULE
Benzene
 12 12 0 0 0
SMALL
GASTEIGER

@<TRIPOS>ATOM
      1 C           1.3832   -0.2215    0.0055 C.ar    1  UNL1       -0.0618
      2 C           0.5068   -1.3068   -0.0081 C.ar    1  UNL1       -0.0618
      3 C          -0.8711   -1.0905   -0.0146 C.ar    1  UNL1       -0.0618
      4 C          -1.3730    0.2108   -0.0046 C.ar    1  UNL1       -0.0618
      5 C          -0.4966    1.2959    0.0105 C.ar    1  UNL1       -0.0618
      6 C           0.8812    1.0797    0.0139 C.ar    1  UNL1       -0.0618
      7 H           2.4567   -0.3901    0.0095 H       1  UNL1        0.0618
      8 H           0.8977   -2.3207   -0.0137 H       1  UNL1        0.0618
      9 H          -1.5538   -1.9361   -0.0271 H       1  UNL1        0.0618
     10 H          -2.4465    0.3794   -0.0084 H       1  UNL1        0.0618
     11 H          -0.8876    2.3099    0.0193 H       1  UNL1        0.0618
     12 H           1.5639    1.9253    0.0238 H       1  UNL1        0.0618
@<TRIPOS>BOND
     1     1     2   ar
     2     2     3   ar
     3     3     4   ar
     4     4     5   ar
     5     5     6   ar
     6     1     6   ar
     7     1     7    1
     8     2     8    1
     9     3     9    1
    10     4    10    1
    11     5    11    1
    12     6    12    1
