REMARK  11 active torsions:
REMARK  status: ('A' for Active; 'I' for Inactive)
REMARK    1  A    between atoms: PG_1  and  O3B_8 
REMARK    2  A    between atoms: PB_5  and  O3A_12 
REMARK    3  A    between atoms: PB_5  and  O3B_8 
REMARK    4  A    between atoms: PA_9  and  O5'_13 
REMARK    5  A    between atoms: PA_9  and  O3A_12 
REMARK    6  A    between atoms: O5'_13  and  C5'_14 
REMARK    7  A    between atoms: C5'_14  and  C4'_15 
REMARK    8  A    between atoms: C3'_17  and  O3'_18 
REMARK    9  A    between atoms: C2'_20  and  O2'_21 
REMARK   10  A    between atoms: C1'_23  and  N9_24 
REMARK   11  A    between atoms: C6_29  and  N6_30 
ROOT
HETATM    1  C4' ATP A 501      41.034  18.978  14.030  1.00  5.20     0.180 C 
HETATM    2  O4' ATP A 501      41.042  20.083  13.138  1.00  4.96    -0.353 OA
HETATM    3  C3' ATP A 501      40.382  19.568  15.268  1.00  5.52     0.182 C 
HETATM    4  C2' ATP A 501      40.973  20.967  15.342  1.00  4.80     0.198 C 
HETATM    5  C1' ATP A 501      41.343  21.265  13.892  1.00  4.22     0.262 C 
ENDROOT
BRANCH   5   6
HETATM    6  N9  ATP A 501      40.602  22.354  13.240  1.00  3.78    -0.297 N 
HETATM    7  C4  ATP A 501      39.267  22.569  13.244  1.00  3.29     0.142 A 
HETATM    8  N3  ATP A 501      38.297  21.903  13.909  1.00  4.79    -0.336 N 
HETATM    9  C5  ATP A 501      39.058  23.679  12.418  1.00  3.65     0.122 A 
HETATM   10  C2  ATP A 501      37.057  22.401  13.740  1.00  4.70     0.183 A 
HETATM   12  N1  ATP A 501      36.760  23.458  12.935  1.00  4.95    -0.337 N 
HETATM   13  C6  ATP A 501      37.744  24.121  12.264  1.00  4.22     0.131 A 
HETATM   15  N7  ATP A 501      40.249  24.145  11.942  1.00  4.47    -0.346 N 
HETATM   16  C8  ATP A 501      41.171  23.310  12.442  1.00  4.18     0.188 A 
BRANCH  13  18
HETATM   18  N6  ATP A 501      37.382  25.103  11.430  1.00  5.27    -0.383 N 
ATOM     19  H62 ATP A 501      38.118  25.599  10.928  1.00  0.00     0.157 HD
ATOM     20  H61 ATP A 501      36.421  25.426  11.317  1.00  0.00     0.157 HD
ENDBRANCH  13  18
ENDBRANCH   5   6
BRANCH   4  21
HETATM   21  O2' ATP A 501      42.117  20.993  16.172  1.00  6.19    -0.388 OA
ATOM     22  H2' ATP A 501      42.486  21.867  16.218  1.00  0.00     0.210 HD
ENDBRANCH   4  21
BRANCH   3  23
HETATM   23  O3' ATP A 501      40.575  18.803  16.426  1.00  7.48    -0.390 OA
ATOM     24  H3' ATP A 501      40.206  17.929  16.380  1.00  0.00     0.210 HD
ENDBRANCH   3  23
BRANCH   1  25
HETATM   25  C5' ATP A 501      40.228  17.831  13.474  1.00  6.42     0.216 C 
BRANCH  25  26
HETATM   26  O5' ATP A 501      40.761  17.421  12.230  1.00  6.65    -0.287 OA
BRANCH  26  27
HETATM   27  PA  ATP A 501      41.441  16.004  12.024  1.00  6.54     0.417 P 
HETATM   28  O2A ATP A 501      40.573  14.911  12.597  1.00  7.34    -0.624 OA
HETATM   29  O1A ATP A 501      41.868  15.977  10.607  1.00  8.18    -0.624 OA
BRANCH  27  30
HETATM   30  O3A ATP A 501      42.720  16.073  13.004  1.00  6.94    -0.180 OA
BRANCH  30  31
HETATM   31  PB  ATP A 501      44.166  16.669  12.640  1.00  6.53     0.428 P 
HETATM   32  O1B ATP A 501      44.846  15.767  11.696  1.00  8.60    -0.624 OA
HETATM   33  O2B ATP A 501      44.015  18.092  12.214  1.00  5.78    -0.624 OA
BRANCH  31  34
HETATM   34  O3B ATP A 501      44.807  16.562  14.092  1.00  7.50    -0.173 OA
BRANCH  34  35
HETATM   35  PG  ATP A 501      46.034  17.442  14.649  1.00  8.07     0.431 P 
HETATM   36  O2G ATP A 501      47.012  16.440  15.214  1.00  9.86    -0.616 OA
HETATM   37  O3G ATP A 501      45.415  18.289  15.759  1.00  9.14    -0.616 OA
HETATM   38  O1G ATP A 501      46.554  18.251  13.486  1.00  6.46    -0.616 OA
ENDBRANCH  34  35
ENDBRANCH  31  34
ENDBRANCH  30  31
ENDBRANCH  27  30
ENDBRANCH  26  27
ENDBRANCH  25  26
ENDBRANCH   1  25
TORSDOF 11
